<?xml version="1.0" encoding="UTF-8"?>


<net version="1.20" junctionCornerDetail="5" limitTurnSpeed="5.50" xmlns:xsi="http://www.w3.org/2001/XMLSchema-instance" xsi:noNamespaceSchemaLocation="http://sumo.dlr.de/xsd/net_file.xsd">
    <location netOffset="0.00,0.00" convBoundary="-150.51,-67.75,58.49,68.63" origBoundary="10000000000.00,10000000000.00,-10000000000.00,-10000000000.00" projParameter="!"/>
    <edge id=":J18_0" function="internal">
        <lane id=":J18_0_0" index="0" allow="bicycle" speed="9.57" length="21.15" width="1.00" shape="-30.69,-81.05 -24.97,-80.27 -20.82,-77.86 -18.27,-73.80 -17.30,-68.10"/>
        <lane id=":J18_0_1" index="1" disallow="pedestrian" speed="8.96" length="17.81" shape="-30.68,-78.95 -25.86,-78.30 -22.37,-76.26 -20.22,-72.84 -19.40,-68.04"/>
        <lane id=":J18_0_2" index="2" disallow="pedestrian" speed="7.66" length="12.72" shape="-30.66,-75.75 -27.21,-75.28 -24.72,-73.83 -23.18,-71.39 -22.60,-67.96"/>
        <lane id=":J18_0_3" index="3" disallow="pedestrian" speed="6.08" length="7.63" shape="-30.63,-72.55 -28.57,-72.27 -27.07,-71.40 -26.15,-69.93 -25.80,-67.87"/>
        <lane id=":J18_0_4" index="4" disallow="pedestrian" speed="3.91" length="2.54" shape="-30.61,-69.35 -29.92,-69.25 -29.42,-68.96 -29.12,-68.48 -29.00,-67.79"/>
    </edge>
    <edge id=":J19_0" function="internal">
        <lane id=":J19_0_0" index="0" allow="bicycle" speed="7.26" length="12.38" width="1.00" shape="-16.08,-21.90 -15.36,-20.16 -13.31,-18.99 -9.94,-18.38 -5.23,-18.33"/>
    </edge>
    <edge id=":J19_1" function="internal">
        <lane id=":J19_1_0" index="0" allow="bicycle" speed="10.00" length="26.34" width="1.00" shape="-16.08,-21.90 -15.19,-16.08 -12.83,-10.41 -9.00,-4.87 -3.70,0.53"/>
    </edge>
    <edge id=":J19_2" function="internal">
        <lane id=":J19_2_0" index="0" allow="bicycle" speed="10.00" length="35.72" width="1.00" shape="-16.08,-21.90 -16.29,13.82"/>
    </edge>
    <edge id=":J19_3" function="internal">
        <lane id=":J19_3_0" index="0" allow="bicycle" speed="10.00" length="38.48" width="1.00" shape="-16.08,-21.90 -16.70,-8.19 -19.39,1.57 -24.16,7.40 -31.00,9.29"/>
    </edge>
    <edge id=":J19_4" function="internal">
        <lane id=":J19_4_0" index="0" disallow="pedestrian" speed="8.34" length="0.77" shape="-18.18,-21.85 -17.94,-21.11"/>
        <lane id=":J19_4_1" index="1" disallow="pedestrian" speed="8.89" length="0.98" shape="-18.18,-21.85 -17.96,-20.89"/>
        <lane id=":J19_4_2" index="2" disallow="pedestrian" speed="9.46" length="1.20" shape="-18.18,-21.85 -17.97,-20.67"/>
        <lane id=":J19_4_3" index="3" disallow="pedestrian" speed="10.00" length="1.40" shape="-18.18,-21.85 -17.98,-20.46"/>
    </edge>
    <edge id=":J19_8" function="internal">
        <lane id=":J19_8_0" index="0" disallow="pedestrian" speed="10.00" length="1.35" shape="-18.18,-21.85 -17.98,-20.51"/>
        <lane id=":J19_8_1" index="1" disallow="pedestrian" speed="10.00" length="1.83" shape="-18.18,-21.85 -17.99,-20.03"/>
        <lane id=":J19_8_2" index="2" disallow="pedestrian" speed="10.00" length="2.41" shape="-18.18,-21.85 -17.99,-19.44"/>
        <lane id=":J19_8_3" index="3" disallow="pedestrian" speed="10.00" length="3.13" shape="-18.18,-21.85 -18.00,-18.72"/>
    </edge>
    <edge id=":J19_12" function="internal">
        <lane id=":J19_12_0" index="0" disallow="pedestrian" speed="10.00" length="35.27" shape="-18.18,-21.85 -18.39,13.74"/>
        <lane id=":J19_12_1" index="1" disallow="pedestrian" speed="10.00" length="35.27" shape="-21.38,-21.76 -21.59,13.61"/>
        <lane id=":J19_12_2" index="2" disallow="pedestrian" speed="10.00" length="35.27" shape="-24.58,-21.68 -24.79,13.49"/>
        <lane id=":J19_12_3" index="3" disallow="pedestrian" speed="10.00" length="35.27" shape="-27.78,-21.59 -27.98,13.37"/>
    </edge>
    <edge id=":J19_16" function="internal">
        <lane id=":J19_16_0" index="0" disallow="pedestrian" speed="10.00" length="29.58" shape="-27.78,-21.59 -27.69,-8.98 -28.19,0.01 -29.29,5.41 -30.98,7.19"/>
        <lane id=":J19_16_1" index="1" disallow="pedestrian" speed="10.00" length="26.41" shape="-27.78,-21.59 -27.72,-10.39 -28.23,-2.39 -29.30,2.41 -30.94,3.99"/>
        <lane id=":J19_16_2" index="2" disallow="pedestrian" speed="9.97" length="23.26" shape="-27.78,-21.59 -27.75,-11.79 -28.26,-4.79 -29.32,-0.59 -30.91,0.79"/>
        <lane id=":J19_16_3" index="3" disallow="pedestrian" speed="9.30" length="20.11" shape="-27.78,-21.59 -27.78,-13.19 -28.30,-7.19 -29.33,-3.60 -30.87,-2.41"/>
    </edge>
    <edge id=":J19_20" function="internal">
        <lane id=":J19_20_0" index="0" disallow="pedestrian" speed="8.34" length="14.92" shape="-17.94,-21.11 -17.30,-19.18 -14.84,-17.35 -10.78,-16.37 -5.14,-16.23"/>
        <lane id=":J19_20_1" index="0" disallow="pedestrian" speed="8.89" length="17.02" shape="-17.96,-20.89 -17.26,-17.78 -14.76,-14.96 -10.67,-13.37 -5.00,-13.03"/>
        <lane id=":J19_20_2" index="0" disallow="pedestrian" speed="9.46" length="19.33" shape="-17.97,-20.67 -17.22,-16.38 -14.68,-12.56 -10.56,-10.37 -4.86,-9.83"/>
        <lane id=":J19_20_3" index="0" disallow="pedestrian" speed="10.00" length="21.78" shape="-17.98,-20.46 -17.18,-14.98 -14.61,-10.16 -10.45,-7.38 -4.73,-6.64"/>
    </edge>
    <edge id=":J19_21" function="internal">
        <lane id=":J19_21_0" index="0" disallow="pedestrian" speed="10.00" length="26.71" shape="-17.98,-20.51 -17.23,-15.59 -14.74,-9.51 -10.69,-3.61 -5.09,2.11"/>
        <lane id=":J19_21_1" index="0" disallow="pedestrian" speed="10.00" length="27.53" shape="-17.99,-20.03 -17.32,-13.80 -15.21,-6.73 -11.84,-0.63 -7.20,4.51"/>
        <lane id=":J19_21_2" index="0" disallow="pedestrian" speed="10.00" length="28.40" shape="-17.99,-19.44 -17.41,-12.01 -15.68,-3.94 -12.98,2.36 -9.32,6.91"/>
        <lane id=":J19_21_3" index="0" disallow="pedestrian" speed="10.00" length="29.28" shape="-18.00,-18.72 -17.50,-10.22 -16.15,-1.16 -14.13,5.35 -11.44,9.30"/>
    </edge>
    <edge id=":J20_0" function="internal">
        <lane id=":J20_0_0" index="0" allow="bicycle" speed="10.00" length="1.07" width="1.00" shape="-16.86,28.31 -16.87,29.11"/>
        <lane id=":J20_0_1" index="1" disallow="pedestrian" speed="10.00" length="1.07" shape="-18.96,28.22 -18.97,29.13"/>
        <lane id=":J20_0_2" index="2" disallow="pedestrian" speed="10.00" length="1.07" shape="-22.15,28.10 -22.17,29.16"/>
        <lane id=":J20_0_3" index="3" disallow="pedestrian" speed="10.00" length="1.07" shape="-25.35,27.98 -25.37,29.20"/>
        <lane id=":J20_0_4" index="4" disallow="pedestrian" speed="10.00" length="1.07" shape="-28.55,27.85 -28.57,29.23"/>
    </edge>
    <edge id=":J23_0" function="internal">
        <lane id=":J23_0_0" index="0" allow="bicycle" speed="9.69" length="17.34" width="1.00" shape="38.73,-18.56 43.28,-17.93 46.92,-16.10 49.65,-13.07 51.45,-8.84"/>
        <lane id=":J23_0_1" index="1" disallow="pedestrian" speed="9.08" length="14.60" shape="38.72,-16.46 42.55,-15.93 45.62,-14.39 47.91,-11.84 49.43,-8.28"/>
        <lane id=":J23_0_2" index="2" disallow="pedestrian" speed="7.75" length="10.43" shape="38.70,-13.26 41.44,-12.88 43.62,-11.78 45.26,-9.96 46.35,-7.41"/>
        <lane id=":J23_0_3" index="3" disallow="pedestrian" speed="6.15" length="6.26" shape="38.68,-10.06 40.32,-9.83 41.63,-9.17 42.62,-8.08 43.27,-6.55"/>
        <lane id=":J23_0_4" index="4" disallow="pedestrian" speed="3.94" length="2.09" shape="38.66,-6.86 39.20,-6.78 39.64,-6.56 39.97,-6.20 40.19,-5.69"/>
    </edge>
    <edge id=":J24_0" function="internal">
        <lane id=":J24_0_0" index="0" allow="bicycle" speed="5.33" length="6.46" width="1.00" shape="-131.61,8.22 -133.36,8.46 -134.62,9.19 -135.38,10.44 -135.64,12.19"/>
    </edge>
    <edge id=":J24_1" function="internal">
        <lane id=":J24_1_0" index="0" allow="bicycle" speed="10.00" length="37.67" width="1.00" shape="-131.61,8.22 -145.06,7.15 -154.62,4.25 -160.30,-0.48 -162.09,-7.03"/>
    </edge>
    <edge id=":J24_2" function="internal">
        <lane id=":J24_2_0" index="0" disallow="pedestrian" speed="6.76" length="9.85" shape="-131.58,6.12 -134.26,6.48 -136.18,7.60 -137.34,9.50 -137.74,12.17"/>
        <lane id=":J24_2_1" index="1" disallow="pedestrian" speed="8.21" length="15.03" shape="-131.55,2.92 -135.63,3.46 -138.56,5.18 -140.33,8.08 -140.94,12.15"/>
        <lane id=":J24_2_2" index="2" disallow="pedestrian" speed="9.44" length="20.20" shape="-131.52,-0.28 -137.01,0.45 -140.94,2.76 -143.32,6.65 -144.14,12.13"/>
        <lane id=":J24_2_3" index="3" disallow="pedestrian" speed="10.00" length="22.85" shape="-131.52,-0.28 -138.41,0.44 -143.34,2.74 -146.32,6.63 -147.34,12.11"/>
    </edge>
    <edge id=":J24_6" function="internal">
        <lane id=":J24_6_0" index="0" disallow="pedestrian" speed="10.00" length="29.15" shape="-131.48,-3.48 -143.98,-3.81 -152.89,-4.51 -158.23,-5.57 -159.99,-6.99"/>
        <lane id=":J24_6_1" index="1" disallow="pedestrian" speed="10.00" length="25.99" shape="-131.48,-3.48 -142.58,-3.79 -150.49,-4.47 -155.23,-5.52 -156.79,-6.92"/>
        <lane id=":J24_6_2" index="2" disallow="pedestrian" speed="9.99" length="22.86" shape="-131.48,-3.48 -141.18,-3.78 -148.09,-4.44 -152.23,-5.47 -153.59,-6.86"/>
        <lane id=":J24_6_3" index="3" disallow="pedestrian" speed="9.31" length="19.73" shape="-131.48,-3.48 -139.78,-3.76 -145.69,-4.41 -149.23,-5.42 -150.39,-6.79"/>
    </edge>
    <edge id=":J25_0" function="internal">
        <lane id=":J25_0_0" index="0" allow="bicycle" speed="9.57" length="21.02" width="1.00" shape="-160.85,-67.18 -159.93,-72.84 -157.42,-76.90 -153.33,-79.35 -147.65,-80.20"/>
        <lane id=":J25_0_1" index="1" disallow="pedestrian" speed="8.97" length="17.70" shape="-158.75,-67.13 -157.97,-71.90 -155.86,-75.32 -152.41,-77.39 -147.63,-78.10"/>
        <lane id=":J25_0_2" index="2" disallow="pedestrian" speed="7.66" length="12.64" shape="-155.55,-67.07 -155.00,-70.47 -153.49,-72.92 -151.03,-74.39 -147.61,-74.90"/>
        <lane id=":J25_0_3" index="3" disallow="pedestrian" speed="6.08" length="7.59" shape="-152.35,-67.00 -152.02,-69.05 -151.11,-70.51 -149.64,-71.40 -147.59,-71.70"/>
        <lane id=":J25_0_4" index="4" disallow="pedestrian" speed="3.91" length="2.53" shape="-149.15,-66.94 -149.04,-67.62 -148.74,-68.11 -148.25,-68.40 -147.57,-68.50"/>
    </edge>
    <edge id=":J26_0" function="internal">
        <lane id=":J26_0_0" index="0" allow="bicycle" speed="4.28" length="4.14" width="1.00" shape="-136.75,52.65 -136.62,53.78 -136.16,54.58 -135.37,55.06 -134.24,55.22"/>
        <lane id=":J26_0_1" index="1" disallow="pedestrian" speed="5.96" length="7.61" shape="-138.85,52.59 -138.61,54.67 -137.76,56.15 -136.30,57.03 -134.22,57.32"/>
        <lane id=":J26_0_2" index="2" disallow="pedestrian" speed="7.56" length="12.90" shape="-142.05,52.50 -141.65,56.03 -140.20,58.54 -137.72,60.04 -134.20,60.52"/>
        <lane id=":J26_0_3" index="3" disallow="pedestrian" speed="8.88" length="18.20" shape="-145.25,52.41 -144.68,57.38 -142.64,60.93 -139.14,63.04 -134.18,63.72"/>
        <lane id=":J26_0_4" index="4" disallow="pedestrian" speed="10.00" length="23.49" shape="-148.45,52.32 -147.71,58.74 -145.08,63.32 -140.56,66.04 -134.16,66.92"/>
    </edge>

    <edge id="E15" from="J18" to="J19" priority="-1" spreadType="roadCenter">
        <lane id="E15_0" index="0" allow="pedestrian" speed="10.00" length="46.21" width="2.00" shape="-15.80,-68.14 -14.58,-21.94"/>
        <lane id="E15_1" index="1" allow="bicycle" speed="10.00" length="46.21" width="1.00" shape="-17.30,-68.10 -16.08,-21.90"/>
        <lane id="E15_2" index="2" disallow="pedestrian" speed="10.00" length="46.21" shape="-19.40,-68.04 -18.18,-21.85"/>
        <lane id="E15_3" index="3" disallow="pedestrian" speed="10.00" length="46.21" shape="-22.60,-67.96 -21.38,-21.76"/>
        <lane id="E15_4" index="4" disallow="pedestrian" speed="10.00" length="46.21" shape="-25.80,-67.87 -24.58,-21.68"/>
        <lane id="E15_5" index="5" disallow="pedestrian" speed="10.00" length="46.21" shape="-29.00,-67.79 -27.78,-21.59"/>
    </edge>
    <edge id="E16" from="J19" to="J20" priority="-1" spreadType="roadCenter">
        <lane id="E16_0" index="0" allow="pedestrian" speed="10.00" length="14.50" width="2.00" shape="-14.79,13.88 -15.36,28.36"/>
        <lane id="E16_1" index="1" allow="bicycle" speed="10.00" length="14.50" width="1.00" shape="-16.29,13.82 -16.86,28.31"/>
        <lane id="E16_2" index="2" disallow="pedestrian" speed="10.00" length="14.50" shape="-18.39,13.74 -18.96,28.22"/>
        <lane id="E16_3" index="3" disallow="pedestrian" speed="10.00" length="14.50" shape="-21.59,13.61 -22.15,28.10"/>
        <lane id="E16_4" index="4" disallow="pedestrian" speed="10.00" length="14.50" shape="-24.79,13.49 -25.35,27.98"/>
        <lane id="E16_5" index="5" disallow="pedestrian" speed="10.00" length="14.50" shape="-27.98,13.37 -28.55,27.85"/>
    </edge>
    <edge id="E17" from="J20" to="J21" priority="-1" spreadType="roadCenter">
        <lane id="E17_0" index="0" allow="pedestrian" speed="10.00" length="21.24" width="2.00" shape="-15.37,29.09 -15.14,50.33"/>
        <lane id="E17_1" index="1" allow="bicycle" speed="10.00" length="21.24" width="1.00" shape="-16.87,29.11 -16.64,50.34"/>
        <lane id="E17_2" index="2" disallow="pedestrian" speed="10.00" length="21.24" shape="-18.97,29.13 -18.74,50.37"/>
        <lane id="E17_3" index="3" disallow="pedestrian" speed="10.00" length="21.24" shape="-22.17,29.16 -21.94,50.40"/>
        <lane id="E17_4" index="4" disallow="pedestrian" speed="10.00" length="21.24" shape="-25.37,29.20 -25.14,50.43"/>
        <lane id="E17_5" index="5" disallow="pedestrian" speed="10.00" length="21.24" shape="-28.57,29.23 -28.34,50.47"/>
    </edge>
    <edge id="E18" from="J19" to="J22" priority="-1" spreadType="roadCenter" shape="-28.91,-3.99 25.87,44.39 58.49,65.67">
        <lane id="E18_0" index="0" allow="pedestrian" speed="10.00" length="69.32" width="2.00" shape="-2.70,-0.59 34.86,32.58 50.23,42.61"/>
        <lane id="E18_1" index="1" allow="bicycle" speed="10.00" length="69.32" width="1.00" shape="-3.70,0.53 33.95,33.78 49.41,43.87"/>
        <lane id="E18_2" index="2" disallow="pedestrian" speed="10.00" length="69.32" shape="-5.09,2.11 32.67,35.46 48.26,45.63"/>
        <lane id="E18_3" index="3" disallow="pedestrian" speed="10.00" length="69.32" shape="-7.20,4.51 30.73,38.01 46.52,48.31"/>
        <lane id="E18_4" index="4" disallow="pedestrian" speed="10.00" length="69.32" shape="-9.32,6.91 28.79,40.56 44.77,50.99"/>
        <lane id="E18_5" index="5" disallow="pedestrian" speed="10.00" length="69.32" shape="-11.44,9.30 26.84,43.11 43.02,53.67"/>
    </edge>
    <edge id="E19" from="J19" to="J23" priority="-1" spreadType="roadCenter" shape="-28.91,-3.99 5.33,-5.47 38.65,-5.26">
        <lane id="E19_0" index="0" allow="pedestrian" speed="10.00" length="43.76" width="2.00" shape="-5.30,-19.82 5.06,-20.27 38.74,-20.06"/>
        <lane id="E19_1" index="1" allow="bicycle" speed="10.00" length="43.76" width="1.00" shape="-5.23,-18.33 5.08,-18.77 38.73,-18.56"/>
        <lane id="E19_2" index="2" disallow="pedestrian" speed="10.00" length="43.76" shape="-5.14,-16.23 5.12,-16.67 38.72,-16.46"/>
        <lane id="E19_3" index="3" disallow="pedestrian" speed="10.00" length="43.76" shape="-5.00,-13.03 5.18,-13.47 38.70,-13.26"/>
        <lane id="E19_4" index="4" disallow="pedestrian" speed="10.00" length="43.76" shape="-4.86,-9.83 5.24,-10.27 38.68,-10.06"/>
        <lane id="E19_5" index="5" disallow="pedestrian" speed="10.00" length="43.76" shape="-4.73,-6.64 5.30,-7.07 38.66,-6.86"/>
    </edge>
    <edge id="E20" from="J23" to="J22" priority="-1" spreadType="roadCenter">
        <lane id="E20_0" index="0" allow="pedestrian" speed="10.00" length="48.19" width="2.00" shape="52.90,-9.25 65.88,37.16"/>
        <lane id="E20_1" index="1" allow="bicycle" speed="10.00" length="48.19" width="1.00" shape="51.45,-8.84 64.44,37.57"/>
        <lane id="E20_2" index="2" disallow="pedestrian" speed="10.00" length="48.19" shape="49.43,-8.28 62.42,38.13"/>
        <lane id="E20_3" index="3" disallow="pedestrian" speed="10.00" length="48.19" shape="46.35,-7.41 59.33,38.99"/>
        <lane id="E20_4" index="4" disallow="pedestrian" speed="10.00" length="48.19" shape="43.27,-6.55 56.25,39.86"/>
        <lane id="E20_5" index="5" disallow="pedestrian" speed="10.00" length="48.19" shape="40.19,-5.69 53.17,40.72"/>
    </edge>
    <edge id="E21" from="J19" to="J24" priority="-1" spreadType="roadCenter" shape="-28.91,-3.99 -148.82,-5.26">
        <lane id="E21_0" index="0" allow="pedestrian" speed="10.00" length="100.61" width="2.00" shape="-31.01,10.79 -131.62,9.72"/>
        <lane id="E21_1" index="1" allow="bicycle" speed="10.00" length="100.61" width="1.00" shape="-31.00,9.29 -131.61,8.22"/>
        <lane id="E21_2" index="2" disallow="pedestrian" speed="10.00" length="100.61" shape="-30.98,7.19 -131.58,6.12"/>
        <lane id="E21_3" index="3" disallow="pedestrian" speed="10.00" length="100.61" shape="-30.94,3.99 -131.55,2.92"/>
        <lane id="E21_4" index="4" disallow="pedestrian" speed="10.00" length="100.61" shape="-30.91,0.79 -131.52,-0.28"/>
        <lane id="E21_5" index="5" disallow="pedestrian" speed="10.00" length="100.61" shape="-30.87,-2.41 -131.48,-3.48"/>
    </edge>
    <edge id="E22" from="J24" to="J25" priority="-1" spreadType="roadCenter" shape="-148.82,-5.26 -147.55,-66.90">
        <lane id="E22_0" index="0" allow="pedestrian" speed="10.00" length="60.16" width="2.00" shape="-163.59,-7.06 -162.35,-67.21"/>
        <lane id="E22_1" index="1" allow="bicycle" speed="10.00" length="60.16" width="1.00" shape="-162.09,-7.03 -160.85,-67.18"/>
        <lane id="E22_2" index="2" disallow="pedestrian" speed="10.00" length="60.16" shape="-159.99,-6.99 -158.75,-67.13"/>
        <lane id="E22_3" index="3" disallow="pedestrian" speed="10.00" length="60.16" shape="-156.79,-6.92 -155.55,-67.07"/>
        <lane id="E22_4" index="4" disallow="pedestrian" speed="10.00" length="60.16" shape="-153.59,-6.86 -152.35,-67.00"/>
        <lane id="E22_5" index="5" disallow="pedestrian" speed="10.00" length="60.16" shape="-150.39,-6.79 -149.15,-66.94"/>
    </edge>
    <edge id="E23" from="J25" to="J18" priority="-1" spreadType="roadCenter">
        <lane id="E23_0" index="0" allow="pedestrian" speed="10.00" length="116.96" width="2.00" shape="-147.66,-81.70 -30.71,-82.55"/>
        <lane id="E23_1" index="1" allow="bicycle" speed="10.00" length="116.96" width="1.00" shape="-147.65,-80.20 -30.69,-81.05"/>
        <lane id="E23_2" index="2" disallow="pedestrian" speed="10.00" length="116.96" shape="-147.63,-78.10 -30.68,-78.95"/>
        <lane id="E23_3" index="3" disallow="pedestrian" speed="10.00" length="116.96" shape="-147.61,-74.90 -30.66,-75.75"/>
        <lane id="E23_4" index="4" disallow="pedestrian" speed="10.00" length="116.96" shape="-147.59,-71.70 -30.63,-72.55"/>
        <lane id="E23_5" index="5" disallow="pedestrian" speed="10.00" length="116.96" shape="-147.57,-68.50 -30.61,-69.35"/>
    </edge>
    <edge id="E24" from="J24" to="J26" priority="-1" spreadType="roadCenter" shape="-148.82,-5.26 -148.95,13.20 -150.51,68.63">
        <lane id="E24_0" index="0" allow="pedestrian" speed="10.00" length="40.38" width="2.00" shape="-134.14,12.20 -134.15,13.46 -135.25,52.69"/>
        <lane id="E24_1" index="1" allow="bicycle" speed="10.00" length="40.38" width="1.00" shape="-135.64,12.19 -135.65,13.43 -136.75,52.65"/>
        <lane id="E24_2" index="2" disallow="pedestrian" speed="10.00" length="40.38" shape="-137.74,12.17 -137.75,13.40 -138.85,52.59"/>
        <lane id="E24_3" index="3" disallow="pedestrian" speed="10.00" length="40.38" shape="-140.94,12.15 -140.95,13.34 -142.05,52.50"/>
        <lane id="E24_4" index="4" disallow="pedestrian" speed="10.00" length="40.38" shape="-144.14,12.13 -144.15,13.28 -145.25,52.41"/>
        <lane id="E24_5" index="5" disallow="pedestrian" speed="10.00" length="40.38" shape="-147.34,12.11 -147.35,13.23 -148.45,52.32"/>
    </edge>
    <edge id="E25" from="J26" to="J21" priority="-1" spreadType="roadCenter">
        <lane id="E25_0" index="0" allow="pedestrian" speed="10.00" length="102.83" width="2.00" shape="-134.25,53.72 -31.42,53.00"/>
        <lane id="E25_1" index="1" allow="bicycle" speed="10.00" length="102.83" width="1.00" shape="-134.24,55.22 -31.41,54.50"/>
        <lane id="E25_2" index="2" disallow="pedestrian" speed="10.00" length="102.83" shape="-134.22,57.32 -31.39,56.60"/>
        <lane id="E25_3" index="3" disallow="pedestrian" speed="10.00" length="102.83" shape="-134.20,60.52 -31.37,59.80"/>
        <lane id="E25_4" index="4" disallow="pedestrian" speed="10.00" length="102.83" shape="-134.18,63.72 -31.35,63.00"/>
        <lane id="E25_5" index="5" disallow="pedestrian" speed="10.00" length="102.83" shape="-134.16,66.92 -31.32,66.20"/>
    </edge>

    <junction id="J18" type="priority" x="-30.60" y="-67.75" incLanes="E23_0 E23_1 E23_2 E23_3 E23_4 E23_5" intLanes=":J18_0_0 :J18_0_1 :J18_0_2 :J18_0_3 :J18_0_4" shape="-30.60,-67.75 -14.80,-68.17 -15.36,-72.90 -16.75,-76.76 -18.99,-79.76 -22.06,-81.89 -25.97,-83.15 -30.71,-83.55">
        <request index="0" response="00000" foes="00000" cont="0"/>
        <request index="1" response="00000" foes="00000" cont="0"/>
        <request index="2" response="00000" foes="00000" cont="0"/>
        <request index="3" response="00000" foes="00000" cont="0"/>
        <request index="4" response="00000" foes="00000" cont="0"/>
    </junction>
    <junction id="J19" type="priority" x="-28.91" y="-3.99" incLanes="E15_0 E15_1 E15_2 E15_3 E15_4 E15_5" intLanes=":J19_0_0 :J19_1_0 :J19_2_0 :J19_3_0 :J19_20_0 :J19_20_1 :J19_20_2 :J19_20_3 :J19_21_0 :J19_21_1 :J19_21_2 :J19_21_3 :J19_12_0 :J19_12_1 :J19_12_2 :J19_12_3 :J19_16_0 :J19_16_1 :J19_16_2 :J19_16_3" shape="-12.50,10.50 -2.04,-1.34 -4.16,-3.37 -4.75,-4.08 -5.03,-4.60 -5.00,-4.92 -4.66,-5.04 -5.34,-20.82 -7.85,-20.76 -9.90,-20.79 -11.50,-20.93 -12.65,-21.17 -13.34,-21.52 -13.58,-21.97 -29.38,-21.55 -29.29,-16.19 -29.33,-11.80 -29.51,-8.39 -29.83,-5.95 -30.28,-4.49 -30.86,-4.01 -31.03,11.79 -30.20,11.96 -29.91,12.18 -29.72,12.47 -29.61,12.84 -29.58,13.30 -13.80,13.92 -13.58,11.58 -13.39,10.86 -13.14,10.44 -12.85,10.32">
        <request index="0"  response="00000000000000000000" foes="00000000000000000000" cont="0"/>
        <request index="1"  response="00000000000000000000" foes="00000000000011110000" cont="0"/>
        <request index="2"  response="00000000000000000000" foes="00000000111111110000" cont="0"/>
        <request index="3"  response="00001111000000000000" foes="00001111111111110000" cont="0"/>
        <request index="4"  response="00000000000000001110" foes="00000000000000001110" cont="1"/>
        <request index="5"  response="00000000000000001110" foes="00000000000000001110" cont="1"/>
        <request index="6"  response="00000000000000001110" foes="00000000000000001110" cont="1"/>
        <request index="7"  response="00000000000000001110" foes="00000000000000001110" cont="1"/>
        <request index="8"  response="00000000000000001100" foes="00000000000000001100" cont="1"/>
        <request index="9"  response="00000000000000001100" foes="00000000000000001100" cont="1"/>
        <request index="10" response="00000000000000001100" foes="00000000000000001100" cont="1"/>
        <request index="11" response="00000000000000001100" foes="00000000000000001100" cont="1"/>
        <request index="12" response="00000000000000000000" foes="00000000000000001000" cont="0"/>
        <request index="13" response="00000000000000000000" foes="00000000000000001000" cont="0"/>
        <request index="14" response="00000000000000000000" foes="00000000000000001000" cont="0"/>
        <request index="15" response="00000000000000000000" foes="00000000000000001000" cont="0"/>
        <request index="16" response="00000000000000000000" foes="00000000000000000000" cont="0"/>
        <request index="17" response="00000000000000000000" foes="00000000000000000000" cont="0"/>
        <request index="18" response="00000000000000000000" foes="00000000000000000000" cont="0"/>
        <request index="19" response="00000000000000000000" foes="00000000000000000000" cont="0"/>
    </junction>
    <junction id="J20" type="priority" x="-30.18" y="28.52" incLanes="E16_0 E16_1 E16_2 E16_3 E16_4 E16_5" intLanes=":J20_0_0 :J20_0_1 :J20_0_2 :J20_0_3 :J20_0_4" shape="-30.17,29.25 -14.37,29.08 -14.36,28.40 -30.15,27.79">
        <request index="0" response="00000" foes="00000" cont="0"/>
        <request index="1" response="00000" foes="00000" cont="0"/>
        <request index="2" response="00000" foes="00000" cont="0"/>
        <request index="3" response="00000" foes="00000" cont="0"/>
        <request index="4" response="00000" foes="00000" cont="0"/>
    </junction>
    <junction id="J21" type="dead_end" x="-29.75" y="67.79" incLanes="E17_0 E17_1 E17_2 E17_3 E17_4 E17_5 E25_0 E25_1 E25_2 E25_3 E25_4 E25_5" intLanes="" shape="-14.14,50.32 -29.94,50.49 -30.10,51.32 -30.30,51.61 -30.59,51.82 -30.97,51.95 -31.42,52.00 -31.31,67.80 -26.01,67.28 -21.69,65.80 -18.34,63.37 -15.97,59.97 -14.57,55.62"/>
    <junction id="J22" type="dead_end" x="58.49" y="65.67" incLanes="E20_0 E20_1 E20_2 E20_3 E20_4 E20_5 E18_0 E18_1 E18_2 E18_3 E18_4 E18_5" intLanes="" shape="66.85,36.89 51.63,41.15 51.71,41.86 51.62,42.03 51.43,42.07 51.15,41.98 50.78,41.77 42.14,55.01 52.95,61.10 61.07,63.55 66.53,62.36 69.31,57.51 69.41,49.03"/>
    <junction id="J23" type="priority" x="38.65" y="-5.26" incLanes="E19_0 E19_1 E19_2 E19_3 E19_4 E19_5" intLanes=":J23_0_0 :J23_0_1 :J23_0_2 :J23_0_3 :J23_0_4" shape="38.65,-5.26 53.86,-9.52 52.55,-13.02 50.76,-15.89 48.48,-18.14 45.72,-19.74 42.47,-20.72 38.75,-21.06">
        <request index="0" response="00000" foes="00000" cont="0"/>
        <request index="1" response="00000" foes="00000" cont="0"/>
        <request index="2" response="00000" foes="00000" cont="0"/>
        <request index="3" response="00000" foes="00000" cont="0"/>
        <request index="4" response="00000" foes="00000" cont="0"/>
    </junction>
    <junction id="J24" type="priority" x="-148.82" y="-4.41" incLanes="E21_0 E21_1 E21_2 E21_3 E21_4 E21_5" intLanes=":J24_0_0 :J24_1_0 :J24_2_0 :J24_2_1 :J24_2_2 :J24_2_3 :J24_6_0 :J24_6_1 :J24_6_2 :J24_6_3" shape="-131.63,10.72 -131.46,-5.08 -136.77,-5.17 -141.10,-5.34 -144.47,-5.59 -146.88,-5.91 -148.32,-6.30 -148.79,-6.76 -164.59,-7.08 -163.51,-2.23 -160.62,0.64 -156.83,2.50 -153.02,4.37 -150.09,7.24 -148.94,12.10 -133.14,12.21 -132.97,11.38 -132.76,11.09 -132.47,10.88 -132.09,10.76">
        <request index="0" response="0000000000" foes="0000000000" cont="0"/>
        <request index="1" response="0000000000" foes="0000111100" cont="0"/>
        <request index="2" response="0000000010" foes="0000000010" cont="0"/>
        <request index="3" response="0000000010" foes="0000000010" cont="0"/>
        <request index="4" response="0000000010" foes="0000000010" cont="0"/>
        <request index="5" response="0000000010" foes="0000000010" cont="0"/>
        <request index="6" response="0000000000" foes="0000000000" cont="0"/>
        <request index="7" response="0000000000" foes="0000000000" cont="0"/>
        <request index="8" response="0000000000" foes="0000000000" cont="0"/>
        <request index="9" response="0000000000" foes="0000000000" cont="0"/>
    </junction>
    <junction id="J25" type="priority" x="-147.55" y="-66.90" incLanes="E22_0 E22_1 E22_2 E22_3 E22_4 E22_5" intLanes=":J25_0_0 :J25_0_1 :J25_0_2 :J25_0_3 :J25_0_4" shape="-147.55,-66.90 -147.67,-82.70 -152.37,-82.24 -156.24,-80.93 -159.27,-78.78 -161.47,-75.78 -162.83,-71.93 -163.35,-67.23">
        <request index="0" response="00000" foes="00000" cont="0"/>
        <request index="1" response="00000" foes="00000" cont="0"/>
        <request index="2" response="00000" foes="00000" cont="0"/>
        <request index="3" response="00000" foes="00000" cont="0"/>
        <request index="4" response="00000" foes="00000" cont="0"/>
    </junction>
    <junction id="J26" type="priority" x="-150.51" y="68.63" incLanes="E24_0 E24_1 E24_2 E24_3 E24_4 E24_5" intLanes=":J26_0_0 :J26_0_1 :J26_0_2 :J26_0_3 :J26_0_4" shape="-134.14,68.52 -134.26,52.72 -150.05,52.27 -149.73,57.27 -148.49,61.35 -146.30,64.51 -143.18,66.76 -139.13,68.10">
        <request index="0" response="00000" foes="00000" cont="0"/>
        <request index="1" response="00000" foes="00000" cont="0"/>
        <request index="2" response="00000" foes="00000" cont="0"/>
        <request index="3" response="00000" foes="00000" cont="0"/>
        <request index="4" response="00000" foes="00000" cont="0"/>
    </junction>

    <junction id=":J19_20_0" type="internal" x="-17.94" y="-21.11" incLanes=":J19_4_0 E15_1" intLanes=":J19_1_0 :J19_2_0 :J19_3_0"/>
    <junction id=":J19_20_1" type="internal" x="-17.96" y="-20.89" incLanes=":J19_4_1 E15_1" intLanes=":J19_1_0 :J19_2_0 :J19_3_0"/>
    <junction id=":J19_20_2" type="internal" x="-17.97" y="-20.67" incLanes=":J19_4_2 E15_1" intLanes=":J19_1_0 :J19_2_0 :J19_3_0"/>
    <junction id=":J19_20_3" type="internal" x="-17.98" y="-20.46" incLanes=":J19_4_3 E15_1" intLanes=":J19_1_0 :J19_2_0 :J19_3_0"/>
    <junction id=":J19_21_0" type="internal" x="-17.98" y="-20.51" incLanes=":J19_8_0 E15_1" intLanes=":J19_2_0 :J19_3_0"/>
    <junction id=":J19_21_1" type="internal" x="-17.99" y="-20.03" incLanes=":J19_8_1 E15_1" intLanes=":J19_2_0 :J19_3_0"/>
    <junction id=":J19_21_2" type="internal" x="-17.99" y="-19.44" incLanes=":J19_8_2 E15_1" intLanes=":J19_2_0 :J19_3_0"/>
    <junction id=":J19_21_3" type="internal" x="-18.00" y="-18.72" incLanes=":J19_8_3 E15_1" intLanes=":J19_2_0 :J19_3_0"/>

    <connection from="E15" to="E19" fromLane="1" toLane="1" via=":J19_0_0" dir="r" state="M"/>