<?xml version="1.0" encoding="UTF-8"?>
<configuration>
    <input>
        <net-file value="mynet.net.xml"/>
        <route-files value="myroutes.rou.xml"/>
        <additional-files value="mylights.add.xml"/>

    </input>

    <time>
        <begin value="0"/>
        <end value="60"/>
    </time>

    <gui_only>
        <start value="true"/>
        <delay value="100"/>
    </gui_only>
</configuration>
