<?xml version="1.0" encoding="UTF-8"?>

<!-- generated on 2025-05-25 16:56:38 by Eclipse SUMO netconvert Version 1.22.0
<netconvertConfiguration xmlns:xsi="http://www.w3.org/2001/XMLSchema-instance" xsi:noNamespaceSchemaLocation="http://sumo.dlr.de/xsd/netconvertConfiguration.xsd">

    <input>
        <sumo-net-file value="net.net.xml"/>
    </input>

    <output>
        <output-file value="net_with_tls.net.xml"/>
    </output>

    <processing>
        <geometry.min-radius.fix.railways value="false"/>
        <geometry.max-grade.fix value="false"/>
        <offset.disable-normalization value="true"/>
        <lefthand value="0"/>
    </processing>

    <tls_building>
        <tls.guess value="true"/>
    </tls_building>

    <junctions>
        <no-turnarounds value="true"/>
        <junctions.corner-detail value="5"/>
        <junctions.limit-turn-speed value="5.50"/>
        <rectangular-lane-cut value="0"/>
    </junctions>

    <pedestrian>
        <walkingareas value="0"/>
    </pedestrian>

</netconvertConfiguration>
-->

<net version="1.20" junctionCornerDetail="5" limitTurnSpeed="5.50" xmlns:xsi="http://www.w3.org/2001/XMLSchema-instance" xsi:noNamespaceSchemaLocation="http://sumo.dlr.de/xsd/net_file.xsd">

    <location netOffset="-777565.64,-1431706.21" convBoundary="0.00,0.00,1599.14,999.61" origBoundary="77.558244,12.938234,77.572944,12.947286" projParameter="+proj=utm +zone=43 +ellps=WGS84 +datum=WGS84 +units=m +no_defs"/>

    <type id="highway.footway" priority="1" numLanes="1" speed="2.78" allow="pedestrian" oneway="1" width="2.00"/>
    <type id="highway.living_street" priority="2" numLanes="1" speed="2.78" disallow="tram rail_urban rail rail_electric rail_fast ship container cable_car subway aircraft wheelchair scooter drone" oneway="0"/>
    <type id="highway.residential" priority="3" numLanes="1" speed="13.89" disallow="tram rail_urban rail rail_electric rail_fast ship container cable_car subway aircraft wheelchair scooter drone" oneway="0"/>
    <type id="highway.secondary" priority="11" numLanes="1" speed="27.78" disallow="tram rail_urban rail rail_electric rail_fast ship container cable_car subway aircraft wheelchair scooter drone" oneway="0"/>
    <type id="highway.service" priority="1" numLanes="1" speed="5.56" allow="pedestrian delivery bicycle" oneway="0"/>
    <type id="highway.steps" priority="1" numLanes="1" speed="1.39" allow="pedestrian" oneway="1" width="2.00"/>
    <type id="highway.tertiary" priority="10" numLanes="1" speed="22.22" disallow="tram rail_urban rail rail_electric rail_fast ship container cable_car subway aircraft wheelchair scooter drone" oneway="0"/>

    <edge id=":10074625668_0" function="internal">
        <lane id=":10074625668_0_0" index="0" allow="pedestrian delivery bicycle" speed="3.65" length="4.67" shape="1184.01,656.41 1183.16,657.58 1182.35,657.95 1181.56,657.52 1180.81,656.29"/>
    </edge>
    <edge id=":10074625669_0" function="internal">
        <lane id=":10074625669_0_0" index="0" allow="pedestrian delivery bicycle" speed="4.37" length="3.45" shape="1189.37,600.28 1188.46,600.26 1187.45,600.33 1186.62,600.58 1186.26,601.14"/>
    </edge>
    <edge id=":10074625669_1" function="internal">
        <lane id=":10074625669_1_0" index="0" disallow="tram rail_urban rail rail_electric rail_fast ship container cable_car subway aircraft wheelchair scooter drone" speed="22.22" length="9.40" shape="1189.37,600.28 1179.97,600.08"/>
        <lane id=":10074625669_1_1" index="1" disallow="tram rail_urban rail rail_electric rail_fast ship container cable_car subway aircraft wheelchair scooter drone" speed="22.22" length="9.40" shape="1189.43,597.08 1180.03,596.88"/>
    </edge>
    <edge id=":10074625669_3" function="internal">
        <lane id=":10074625669_3_0" index="0" allow="pedestrian delivery bicycle" speed="4.33" length="3.47" shape="1183.06,601.01 1182.74,600.45 1181.90,600.18 1180.88,600.09 1179.97,600.08"/>
    </edge>
    <edge id=":10074625669_4" function="internal">
        <lane id=":10074625669_4_0" index="0" allow="pedestrian delivery bicycle" speed="3.65" length="4.67" shape="1183.06,601.01 1183.91,599.84 1184.72,599.48 1185.51,599.91 1186.26,601.14"/>
    </edge>
    <edge id=":10074640031_0" function="internal">
        <lane id=":10074640031_0_0" index="0" allow="pedestrian delivery bicycle" speed="3.65" length="4.67" shape="985.03,506.44 983.83,505.64 983.43,504.84 983.83,504.04 985.03,503.24"/>
    </edge>
    <edge id=":10074640032_0" function="internal">
        <lane id=":10074640032_0_0" index="0" allow="pedestrian delivery bicycle" speed="4.53" length="3.71" shape="1050.33,553.88 1049.71,554.08 1049.26,554.65 1048.97,555.60 1048.85,556.93"/>
    </edge>
    <edge id=":10074640032_1" function="internal">
        <lane id=":10074640032_1_0" index="0" allow="pedestrian delivery bicycle" speed="7.19" length="11.43" shape="1050.33,553.88 1046.93,553.54 1044.51,552.37 1043.06,550.38 1042.58,547.56"/>
    </edge>
    <edge id=":10074640032_2" function="internal">
        <lane id=":10074640032_2_0" index="0" allow="pedestrian delivery bicycle" speed="3.65" length="4.67" shape="1050.33,553.88 1049.12,553.10 1048.70,552.31 1049.09,551.50 1050.27,550.68"/>
    </edge>
    <edge id=":10074640032_3" function="internal">
        <lane id=":10074640032_3_0" index="0" allow="pedestrian delivery bicycle" speed="4.43" length="3.68" shape="1048.98,547.57 1049.06,548.94 1049.30,549.91 1049.70,550.49 1050.27,550.68"/>
    </edge>
    <edge id=":10074640032_4" function="internal">
        <lane id=":10074640032_4_0" index="0" disallow="tram rail_urban rail rail_electric rail_fast ship container cable_car subway aircraft wheelchair scooter drone" speed="22.22" length="9.32" shape="1048.98,547.57 1048.85,556.93"/>
        <lane id=":10074640032_4_1" index="1" disallow="tram rail_urban rail rail_electric rail_fast ship container cable_car subway aircraft wheelchair scooter drone" speed="22.22" length="9.32" shape="1045.78,547.56 1045.65,556.85"/>
    </edge>
    <edge id=":10074640032_6" function="internal">
        <lane id=":10074640032_6_0" index="0" disallow="tram rail_urban rail rail_electric rail_fast ship container cable_car subway aircraft wheelchair scooter drone" speed="22.22" length="9.16" shape="1039.25,556.68 1039.38,547.56"/>
        <lane id=":10074640032_6_1" index="1" disallow="tram rail_urban rail rail_electric rail_fast ship container cable_car subway aircraft wheelchair scooter drone" speed="22.22" length="9.16" shape="1042.45,556.76 1042.58,547.56"/>
    </edge>
    <edge id=":10074640032_8" function="internal">
        <lane id=":10074640032_8_0" index="0" allow="pedestrian delivery bicycle" speed="7.27" length="2.86" shape="1042.45,556.76 1043.00,554.15 1043.12,554.00"/>
    </edge>
    <edge id=":10074640032_9" function="internal">
        <lane id=":10074640032_9_0" index="0" allow="pedestrian delivery bicycle" speed="7.27" length="8.28" shape="1043.12,554.00 1044.49,552.27 1046.91,551.11 1050.27,550.68"/>
    </edge>
    <edge id=":10074640033_0" function="internal">
        <lane id=":10074640033_0_0" index="0" allow="pedestrian delivery bicycle" speed="3.65" length="4.67" shape="1076.17,551.21 1077.35,552.03 1077.74,552.84 1077.33,553.63 1076.11,554.41"/>
    </edge>
    <edge id=":10074640034_0" function="internal">
        <lane id=":10074640034_0_0" index="0" disallow="tram rail_urban rail rail_electric rail_fast ship container cable_car subway aircraft wheelchair scooter drone" speed="22.22" length="9.82" shape="1048.85,534.38 1048.98,544.26"/>
        <lane id=":10074640034_0_1" index="1" disallow="tram rail_urban rail rail_electric rail_fast ship container cable_car subway aircraft wheelchair scooter drone" speed="22.22" length="9.82" shape="1045.65,534.49 1045.78,544.25"/>
    </edge>
    <edge id=":10074640034_2" function="internal">
        <lane id=":10074640034_2_0" index="0" allow="pedestrian delivery bicycle" speed="7.29" length="2.85" shape="1045.65,534.49 1045.29,536.91 1045.06,537.25"/>
    </edge>
    <edge id=":10074640034_9" function="internal">
        <lane id=":10074640034_9_0" index="0" allow="pedestrian delivery bicycle" speed="7.29" length="7.68" shape="1045.06,537.25 1044.01,538.80 1041.81,540.15 1038.69,540.98"/>
    </edge>
    <edge id=":10074640034_3" function="internal">
        <lane id=":10074640034_3_0" index="0" allow="pedestrian delivery bicycle" speed="4.54" length="3.51" shape="1038.20,537.82 1038.70,537.56 1039.04,536.95 1039.23,536.01 1039.25,534.72"/>
    </edge>
    <edge id=":10074640034_4" function="internal">
        <lane id=":10074640034_4_0" index="0" allow="pedestrian delivery bicycle" speed="6.98" length="11.80" shape="1038.20,537.82 1041.52,537.77 1043.89,538.83 1045.31,540.99 1045.78,544.25"/>
    </edge>
    <edge id=":10074640034_5" function="internal">
        <lane id=":10074640034_5_0" index="0" allow="pedestrian delivery bicycle" speed="3.65" length="4.67" shape="1038.20,537.82 1039.51,538.42 1040.03,539.15 1039.75,540.00 1038.69,540.98"/>
    </edge>
    <edge id=":10074640034_6" function="internal">
        <lane id=":10074640034_6_0" index="0" allow="pedestrian delivery bicycle" speed="4.23" length="3.59" shape="1039.38,544.24 1039.41,543.29 1039.41,542.18 1039.22,541.28 1038.69,540.98"/>
    </edge>
    <edge id=":10074640034_7" function="internal">
        <lane id=":10074640034_7_0" index="0" disallow="tram rail_urban rail rail_electric rail_fast ship container cable_car subway aircraft wheelchair scooter drone" speed="22.22" length="9.58" shape="1039.38,544.24 1039.25,534.72"/>
        <lane id=":10074640034_7_1" index="1" disallow="tram rail_urban rail rail_electric rail_fast ship container cable_car subway aircraft wheelchair scooter drone" speed="22.22" length="9.58" shape="1042.58,544.25 1042.45,534.61"/>
    </edge>
    <edge id=":10074640035_0" function="internal">
        <lane id=":10074640035_0_0" index="0" allow="pedestrian delivery bicycle" speed="5.56" length="7.75" shape="1026.04,541.65 1023.93,541.36 1022.42,540.47 1021.52,538.97 1021.21,536.87"/>
    </edge>
    <edge id=":10074640035_1" function="internal">
        <lane id=":10074640035_1_0" index="0" allow="pedestrian delivery bicycle" speed="3.90" length="2.58" shape="1024.41,536.86 1024.51,537.56 1024.81,538.06 1025.32,538.35 1026.02,538.45"/>
    </edge>
    <edge id=":10074640045_0" function="internal">
        <lane id=":10074640045_0_0" index="0" allow="pedestrian delivery bicycle" speed="3.65" length="4.67" shape="1183.88,320.67 1183.15,321.92 1182.38,322.37 1181.56,322.02 1180.68,320.87"/>
    </edge>
    <edge id=":10074640049_0" function="internal">
        <lane id=":10074640049_0_0" index="0" allow="pedestrian delivery bicycle" speed="5.08" length="5.04" shape="1207.55,262.95 1206.19,263.15 1205.23,263.74 1204.64,264.72 1204.43,266.10"/>
    </edge>
    <edge id=":10074640049_1" function="internal">
        <lane id=":10074640049_1_0" index="0" disallow="tram rail_urban rail rail_electric rail_fast ship container cable_car subway aircraft wheelchair scooter drone" speed="13.89" length="9.40" shape="1207.55,262.95 1198.15,262.95"/>
    </edge>
    <edge id=":10074640049_2" function="internal">
        <lane id=":10074640049_2_0" index="0" disallow="tram rail_urban rail rail_electric rail_fast ship container cable_car subway aircraft wheelchair scooter drone" speed="13.89" length="9.40" shape="1198.15,259.75 1207.54,259.75"/>
    </edge>
    <edge id=":10074640049_3" function="internal">
        <lane id=":10074640049_3_0" index="0" allow="pedestrian delivery bicycle" speed="6.85" length="3.27" shape="1198.15,259.75 1200.92,260.15 1201.32,260.39"/>
    </edge>
    <edge id=":10074640049_7" function="internal">
        <lane id=":10074640049_7_0" index="0" allow="pedestrian delivery bicycle" speed="6.85" length="6.94" shape="1201.32,260.39 1202.89,261.34 1204.06,263.32 1204.43,266.10"/>
    </edge>
    <edge id=":10074640049_4" function="internal">
        <lane id=":10074640049_4_0" index="0" allow="pedestrian delivery bicycle" speed="5.03" length="5.01" shape="1201.23,266.07 1201.05,264.70 1200.48,263.73 1199.51,263.14 1198.15,262.95"/>
    </edge>
    <edge id=":10074640049_5" function="internal">
        <lane id=":10074640049_5_0" index="0" allow="pedestrian delivery bicycle" speed="6.89" length="10.16" shape="1201.23,266.07 1201.65,263.30 1202.84,261.33 1204.81,260.14 1207.54,259.75"/>
    </edge>
    <edge id=":10074640049_6" function="internal">
        <lane id=":10074640049_6_0" index="0" allow="pedestrian delivery bicycle" speed="3.65" length="4.67" shape="1201.23,266.07 1202.04,264.88 1202.85,264.48 1203.64,264.89 1204.43,266.10"/>
    </edge>
    <edge id=":10074640060_0" function="internal">
        <lane id=":10074640060_0_0" index="0" allow="pedestrian delivery bicycle" speed="5.06" length="5.02" shape="1139.64,266.08 1139.44,264.72 1138.86,263.74 1137.89,263.16 1136.54,262.96"/>
    </edge>
    <edge id=":10074640060_1" function="internal">
        <lane id=":10074640060_1_0" index="0" allow="pedestrian delivery bicycle" speed="6.86" length="10.18" shape="1139.64,266.08 1140.02,263.32 1141.20,261.34 1143.17,260.15 1145.93,259.76"/>
    </edge>
    <edge id=":10074640060_2" function="internal">
        <lane id=":10074640060_2_0" index="0" allow="pedestrian delivery bicycle" speed="3.65" length="4.67" shape="1139.64,266.08 1140.44,264.88 1141.23,264.47 1142.04,264.87 1142.84,266.07"/>
    </edge>
    <edge id=":10074640060_3" function="internal">
        <lane id=":10074640060_3_0" index="0" allow="pedestrian delivery bicycle" speed="5.04" length="5.01" shape="1145.94,262.96 1144.58,263.15 1143.61,263.74 1143.03,264.71 1142.84,266.07"/>
    </edge>
    <edge id=":10074640060_4" function="internal">
        <lane id=":10074640060_4_0" index="0" disallow="tram rail_urban rail rail_electric rail_fast ship container cable_car subway aircraft wheelchair scooter drone" speed="13.89" length="9.40" shape="1145.94,262.96 1136.54,262.96"/>
    </edge>
    <edge id=":10074640060_5" function="internal">
        <lane id=":10074640060_5_0" index="0" disallow="tram rail_urban rail rail_electric rail_fast ship container cable_car subway aircraft wheelchair scooter drone" speed="13.89" length="9.40" shape="1136.54,259.76 1145.93,259.76"/>
    </edge>
    <edge id=":10074640060_6" function="internal">
        <lane id=":10074640060_6_0" index="0" allow="pedestrian delivery bicycle" speed="6.87" length="3.26" shape="1136.54,259.76 1139.28,260.15 1139.69,260.40"/>
    </edge>
    <edge id=":10074640060_7" function="internal">
        <lane id=":10074640060_7_0" index="0" allow="pedestrian delivery bicycle" speed="6.87" length="6.91" shape="1139.69,260.40 1141.25,261.34 1142.44,263.31 1142.84,266.07"/>
    </edge>
    <edge id=":10074640061_0" function="internal">
        <lane id=":10074640061_0_0" index="0" allow="pedestrian delivery bicycle" speed="3.65" length="4.67" shape="1143.35,355.58 1142.56,356.79 1141.76,357.19 1140.96,356.79 1140.15,355.60"/>
    </edge>
    <edge id=":10074640064_0" function="internal">
        <lane id=":10074640064_0_0" index="0" allow="pedestrian delivery bicycle" speed="3.65" length="4.67" shape="971.20,431.26 971.78,429.94 972.50,429.40 973.36,429.66 974.36,430.70"/>
    </edge>
    <edge id=":10074640066_0" function="internal">
        <lane id=":10074640066_0_0" index="0" allow="pedestrian delivery bicycle" speed="4.63" length="2.75" shape="1005.71,462.97 1005.35,462.29 1005.06,461.58 1004.71,461.06 1004.13,460.95"/>
    </edge>
    <edge id=":10074640066_1" function="internal">
        <lane id=":10074640066_1_0" index="0" disallow="tram rail_urban rail rail_electric rail_fast ship container cable_car subway aircraft wheelchair scooter drone" speed="22.22" length="10.01" shape="1005.71,462.97 999.71,454.96"/>
        <lane id=":10074640066_1_1" index="1" disallow="tram rail_urban rail rail_electric rail_fast ship container cable_car subway aircraft wheelchair scooter drone" speed="22.22" length="10.01" shape="1008.27,461.05 1002.27,453.04"/>
    </edge>
    <edge id=":10074640066_3" function="internal">
        <lane id=":10074640066_3_0" index="0" disallow="tram rail_urban rail rail_electric rail_fast ship container cable_car subway aircraft wheelchair scooter drone" speed="22.22" length="10.01" shape="1007.39,449.20 1013.39,457.21"/>
        <lane id=":10074640066_3_1" index="1" disallow="tram rail_urban rail rail_electric rail_fast ship container cable_car subway aircraft wheelchair scooter drone" speed="22.22" length="10.01" shape="1004.83,451.12 1010.83,459.13"/>
    </edge>
    <edge id=":10074640066_5" function="internal">
        <lane id=":10074640066_5_0" index="0" allow="pedestrian delivery bicycle" speed="6.64" length="4.98" shape="1004.83,451.12 1007.11,454.84 1007.25,455.44"/>
    </edge>
    <edge id=":10074640066_9" function="internal">
        <lane id=":10074640066_9_0" index="0" allow="pedestrian delivery bicycle" speed="6.64" length="7.49" shape="1007.25,455.44 1007.76,457.72 1006.76,459.76 1004.13,460.95"/>
    </edge>
    <edge id=":10074640066_6" function="internal">
        <lane id=":10074640066_6_0" index="0" allow="pedestrian delivery bicycle" speed="4.40" length="4.70" shape="1003.43,457.83 999.71,454.96"/>
    </edge>
    <edge id=":10074640066_7" function="internal">
        <lane id=":10074640066_7_0" index="0" allow="pedestrian delivery bicycle" speed="7.31" length="7.92" shape="1003.43,457.83 1005.96,457.45 1008.03,457.54 1009.66,458.10 1010.83,459.13"/>
    </edge>
    <edge id=":10074640066_8" function="internal">
        <lane id=":10074640066_8_0" index="0" allow="pedestrian delivery bicycle" speed="3.65" length="4.67" shape="1003.43,457.83 1004.78,458.35 1005.34,459.04 1005.13,459.91 1004.13,460.95"/>
    </edge>
    <edge id=":10074640107_0" function="internal">
        <lane id=":10074640107_0_0" index="0" disallow="tram rail_urban rail rail_electric rail_fast ship container cable_car subway aircraft wheelchair scooter drone" speed="27.78" length="4.98" shape="1038.73,619.48 1038.54,624.46"/>
    </edge>
    <edge id=":10081050072_0" function="internal">
        <lane id=":10081050072_0_0" index="0" disallow="tram rail_urban rail rail_electric rail_fast ship container cable_car subway aircraft wheelchair scooter drone" speed="11.11" length="8.11" shape="771.30,509.59 767.78,502.29"/>
        <lane id=":10081050072_0_1" index="1" disallow="tram rail_urban rail rail_electric rail_fast ship container cable_car subway aircraft wheelchair scooter drone" speed="11.11" length="8.11" shape="774.18,508.20 770.66,500.90"/>
    </edge>
    <edge id=":10081050072_2" function="internal">
        <lane id=":10081050072_2_0" index="0" disallow="tram rail_urban rail rail_electric rail_fast ship container cable_car subway aircraft wheelchair scooter drone" speed="5.57" length="7.01" shape="774.18,508.20 773.41,506.08 773.38,504.39 774.08,503.15 775.51,502.35"/>
    </edge>
    <edge id=":10081050072_3" function="internal">
        <lane id=":10081050072_3_0" index="0" disallow="tram rail_urban rail rail_electric rail_fast ship container cable_car subway aircraft wheelchair scooter drone" speed="6.48" length="8.02" shape="776.50,505.40 774.94,505.50 773.45,504.78 772.02,503.25 770.66,500.90"/>
    </edge>
    <edge id=":10081050072_4" function="internal">
        <lane id=":10081050072_4_0" index="0" disallow="tram rail_urban rail rail_electric rail_fast ship container cable_car subway aircraft wheelchair scooter drone" speed="3.65" length="4.67" shape="776.50,505.40 775.11,505.00 774.48,504.36 774.62,503.48 775.51,502.35"/>
    </edge>
    <edge id=":10081050073_0" function="internal">
        <lane id=":10081050073_0_0" index="0" disallow="tram rail_urban rail rail_electric rail_fast ship container cable_car subway aircraft wheelchair scooter drone" speed="3.65" length="4.67" shape="811.57,490.73 812.96,491.12 813.58,491.76 813.45,492.64 812.55,493.77"/>
    </edge>
    <edge id=":10081055313_0" function="internal">
        <lane id=":10081055313_0_0" index="0" disallow="tram rail_urban rail rail_electric rail_fast ship container cable_car subway aircraft wheelchair scooter drone" speed="13.89" length="13.18" shape="876.26,589.12 875.76,602.30"/>
    </edge>
    <edge id=":10081055313_1" function="internal">
        <lane id=":10081055313_1_0" index="0" disallow="tram rail_urban rail rail_electric rail_fast ship container cable_car subway aircraft wheelchair scooter drone" speed="8.69" length="3.07" shape="876.26,589.12 875.58,591.98 875.50,592.08"/>
    </edge>
    <edge id=":10081055313_2" function="internal">
        <lane id=":10081055313_2_0" index="0" disallow="tram rail_urban rail rail_electric rail_fast ship container cable_car subway aircraft wheelchair scooter drone" speed="3.65" length="1.44" shape="876.26,589.12 875.41,590.29"/>
    </edge>
    <edge id=":10081055313_9" function="internal">
        <lane id=":10081055313_9_0" index="0" disallow="tram rail_urban rail rail_electric rail_fast ship container cable_car subway aircraft wheelchair scooter drone" speed="8.69" length="10.48" shape="875.50,592.08 873.79,594.32 870.88,596.15 866.86,597.45"/>
    </edge>
    <edge id=":10081055313_10" function="internal">
        <lane id=":10081055313_10_0" index="0" disallow="tram rail_urban rail rail_electric rail_fast ship container cable_car subway aircraft wheelchair scooter drone" speed="3.65" length="3.23" shape="875.41,590.29 874.60,590.66 873.81,590.23 873.06,589.00"/>
    </edge>
    <edge id=":10081055313_3" function="internal">
        <lane id=":10081055313_3_0" index="0" disallow="tram rail_urban rail rail_electric rail_fast ship container cable_car subway aircraft wheelchair scooter drone" speed="7.32" length="9.35" shape="866.15,594.33 869.12,593.42 871.26,592.23 872.57,590.75 873.06,589.00"/>
    </edge>
    <edge id=":10081055313_4" function="internal">
        <lane id=":10081055313_4_0" index="0" disallow="tram rail_urban rail rail_electric rail_fast ship container cable_car subway aircraft wheelchair scooter drone" speed="7.61" length="15.30" shape="866.15,594.33 870.50,593.97 873.55,595.18 875.31,597.95 875.76,602.30"/>
    </edge>
    <edge id=":10081055313_5" function="internal">
        <lane id=":10081055313_5_0" index="0" disallow="tram rail_urban rail rail_electric rail_fast ship container cable_car subway aircraft wheelchair scooter drone" speed="3.65" length="4.67" shape="866.15,594.33 867.49,594.84 868.06,595.53 867.85,596.40 866.86,597.45"/>
    </edge>
    <edge id=":10081055313_6" function="internal">
        <lane id=":10081055313_6_0" index="0" disallow="tram rail_urban rail rail_electric rail_fast ship container cable_car subway aircraft wheelchair scooter drone" speed="6.01" length="9.08" shape="872.56,602.18 872.29,599.60 871.25,597.95 869.44,597.24 866.86,597.45"/>
    </edge>
    <edge id=":10081055313_7" function="internal">
        <lane id=":10081055313_7_0" index="0" disallow="tram rail_urban rail rail_electric rail_fast ship container cable_car subway aircraft wheelchair scooter drone" speed="13.89" length="13.18" shape="872.56,602.18 873.06,589.00"/>
    </edge>
    <edge id=":10081055313_8" function="internal">
        <lane id=":10081055313_8_0" index="0" disallow="tram rail_urban rail rail_electric rail_fast ship container cable_car subway aircraft wheelchair scooter drone" speed="3.65" length="1.44" shape="872.56,602.18 873.41,601.01"/>
    </edge>
    <edge id=":10081055313_11" function="internal">
        <lane id=":10081055313_11_0" index="0" disallow="tram rail_urban rail rail_electric rail_fast ship container cable_car subway aircraft wheelchair scooter drone" speed="3.65" length="3.23" shape="873.41,601.01 874.22,600.64 875.01,601.07 875.76,602.30"/>
    </edge>
    <edge id=":10839446244_0" function="internal">
        <lane id=":10839446244_0_0" index="0" disallow="tram rail_urban rail rail_electric rail_fast ship container cable_car subway aircraft wheelchair scooter drone" speed="2.78" length="4.67" shape="966.38,662.22 966.02,663.61 965.39,664.25 964.51,664.14 963.36,663.26"/>
    </edge>
    <edge id=":10839446245_0" function="internal">
        <lane id=":10839446245_0_0" index="0" disallow="tram rail_urban rail rail_electric rail_fast ship container cable_car subway aircraft wheelchair scooter drone" speed="2.78" length="4.67" shape="948.66,620.66 949.02,619.27 949.65,618.63 950.53,618.74 951.68,619.62"/>
    </edge>
    <edge id=":10839453987_0" function="internal">
        <lane id=":10839453987_0_0" index="0" disallow="tram rail_urban rail rail_electric rail_fast ship container cable_car subway aircraft wheelchair scooter drone" speed="13.89" length="14.77" shape="920.69,556.21 920.41,570.98"/>
    </edge>
    <edge id=":10839453987_1" function="internal">
        <lane id=":10839453987_1_0" index="0" disallow="tram rail_urban rail rail_electric rail_fast ship container cable_car subway aircraft wheelchair scooter drone" speed="8.02" length="4.36" shape="920.69,556.21 920.21,560.09 919.98,560.48"/>
    </edge>
    <edge id=":10839453987_2" function="internal">
        <lane id=":10839453987_2_0" index="0" disallow="tram rail_urban rail rail_electric rail_fast ship container cable_car subway aircraft wheelchair scooter drone" speed="3.65" length="1.44" shape="920.69,556.21 919.92,557.43"/>
    </edge>
    <edge id=":10839453987_9" function="internal">
        <lane id=":10839453987_9_0" index="0" disallow="tram rail_urban rail rail_electric rail_fast ship container cable_car subway aircraft wheelchair scooter drone" speed="8.02" length="10.03" shape="919.98,560.48 918.57,562.87 915.78,564.56 911.83,565.15"/>
    </edge>
    <edge id=":10839453987_10" function="internal">
        <lane id=":10839453987_10_0" index="0" disallow="tram rail_urban rail rail_electric rail_fast ship container cable_car subway aircraft wheelchair scooter drone" speed="3.65" length="3.23" shape="919.92,557.43 919.12,557.85 918.32,557.46 917.49,556.28"/>
    </edge>
    <edge id=":10839453987_3" function="internal">
        <lane id=":10839453987_3_0" index="0" disallow="tram rail_urban rail rail_electric rail_fast ship container cable_car subway aircraft wheelchair scooter drone" speed="6.53" length="9.18" shape="911.80,561.95 914.33,561.57 916.13,560.50 917.18,558.74 917.49,556.28"/>
    </edge>
    <edge id=":10839453987_4" function="internal">
        <lane id=":10839453987_4_0" index="0" disallow="tram rail_urban rail rail_electric rail_fast ship container cable_car subway aircraft wheelchair scooter drone" speed="7.88" length="14.46" shape="911.80,561.95 915.77,562.48 918.52,564.17 920.07,567.00 920.41,570.98"/>
    </edge>
    <edge id=":10839453987_5" function="internal">
        <lane id=":10839453987_5_0" index="0" disallow="tram rail_urban rail rail_electric rail_fast ship container cable_car subway aircraft wheelchair scooter drone" speed="3.65" length="4.67" shape="911.80,561.95 913.01,562.74 913.42,563.53 913.02,564.34 911.83,565.15"/>
    </edge>
    <edge id=":10839453987_6" function="internal">
        <lane id=":10839453987_6_0" index="0" disallow="tram rail_urban rail rail_electric rail_fast ship container cable_car subway aircraft wheelchair scooter drone" speed="6.36" length="9.04" shape="917.21,570.80 917.00,568.31 916.03,566.53 914.31,565.48 911.83,565.15"/>
    </edge>
    <edge id=":10839453987_7" function="internal">
        <lane id=":10839453987_7_0" index="0" disallow="tram rail_urban rail rail_electric rail_fast ship container cable_car subway aircraft wheelchair scooter drone" speed="13.89" length="14.52" shape="917.21,570.80 917.49,556.28"/>
    </edge>
    <edge id=":10839453987_8" function="internal">
        <lane id=":10839453987_8_0" index="0" disallow="tram rail_urban rail rail_electric rail_fast ship container cable_car subway aircraft wheelchair scooter drone" speed="3.65" length="1.44" shape="917.21,570.80 918.08,569.65"/>
    </edge>
    <edge id=":10839453987_11" function="internal">
        <lane id=":10839453987_11_0" index="0" disallow="tram rail_urban rail rail_electric rail_fast ship container cable_car subway aircraft wheelchair scooter drone" speed="3.65" length="3.23" shape="918.08,569.65 918.90,569.29 919.68,569.74 920.41,570.98"/>
    </edge>
    <edge id=":10839453988_0" function="internal">
        <lane id=":10839453988_0_0" index="0" disallow="tram rail_urban rail rail_electric rail_fast ship container cable_car subway aircraft wheelchair scooter drone" speed="3.65" length="4.67" shape="885.05,565.40 883.85,564.61 883.44,563.81 883.83,563.01 885.03,562.20"/>
    </edge>
    <edge id=":10980043559_0" function="internal">
        <lane id=":10980043559_0_0" index="0" disallow="tram rail_urban rail rail_electric rail_fast ship container cable_car subway aircraft wheelchair scooter drone" speed="13.89" length="9.41" shape="1091.04,244.21 1090.65,253.61"/>
    </edge>
    <edge id=":10980043559_1" function="internal">
        <lane id=":10980043559_1_0" index="0" allow="pedestrian delivery bicycle" speed="6.93" length="3.21" shape="1091.04,244.21 1090.53,246.90 1090.27,247.29"/>
    </edge>
    <edge id=":10980043559_7" function="internal">
        <lane id=":10980043559_7_0" index="0" allow="pedestrian delivery bicycle" speed="6.93" length="6.96" shape="1090.27,247.29 1089.26,248.81 1087.23,249.94 1084.44,250.29"/>
    </edge>
    <edge id=":10980043559_2" function="internal">
        <lane id=":10980043559_2_0" index="0" allow="pedestrian delivery bicycle" speed="5.14" length="5.12" shape="1084.48,247.09 1085.90,246.92 1086.94,246.36 1087.58,245.41 1087.84,244.08"/>
    </edge>
    <edge id=":10980043559_3" function="internal">
        <lane id=":10980043559_3_0" index="0" allow="pedestrian delivery bicycle" speed="6.84" length="10.31" shape="1084.48,247.09 1087.28,247.53 1089.24,248.76 1090.36,250.79 1090.65,253.61"/>
    </edge>